Version 4
SHEET 1 880 1128
WIRE 64 32 64 -16
WIRE -576 96 -688 96
WIRE -688 128 -688 96
WIRE 64 128 64 96
WIRE 304 128 64 128
WIRE 64 144 64 128
WIRE 304 192 304 128
WIRE 208 240 208 224
WIRE -688 256 -688 208
WIRE 64 256 64 224
WIRE 64 256 -48 256
WIRE 176 256 64 256
WIRE -48 272 -48 256
WIRE 304 272 304 256
WIRE 304 272 240 272
WIRE 368 272 304 272
WIRE 480 272 368 272
WIRE 544 272 480 272
WIRE 64 288 64 256
WIRE 176 288 128 288
WIRE -576 304 -688 304
WIRE 208 320 208 304
WIRE -688 336 -688 304
WIRE -48 384 -48 336
WIRE 128 384 128 288
WIRE 304 384 304 272
WIRE 304 384 128 384
WIRE 64 400 64 352
WIRE 368 400 368 352
WIRE 368 400 64 400
WIRE 368 416 368 400
WIRE -112 432 -176 432
WIRE -688 464 -688 416
WIRE -176 480 -176 432
WIRE 208 480 -48 480
WIRE 304 528 304 496
WIRE 480 544 480 272
WIRE 480 544 336 544
WIRE 160 560 -176 560
WIRE 272 560 160 560
WIRE 416 576 336 576
WIRE 160 608 160 560
WIRE 304 624 304 592
WIRE 560 688 560 640
WIRE 160 736 160 672
WIRE 160 848 160 816
WIRE 416 848 416 576
WIRE 416 848 160 848
WIRE 464 848 416 848
WIRE 560 848 560 768
WIRE 560 848 528 848
WIRE 160 880 160 848
WIRE 560 928 560 848
WIRE 160 1008 160 960
WIRE 560 1040 560 1008
FLAG -688 256 0
FLAG -688 464 0
FLAG -576 304 Vee
FLAG -576 96 Vcc
FLAG 208 320 Vcc
FLAG 208 224 Vee
FLAG 64 -16 Vcc
FLAG 208 480 Vee
FLAG 368 416 0
FLAG 304 496 Vcc
FLAG 304 624 Vee
FLAG 544 272 Vout
FLAG 160 1008 0
FLAG 560 640 Vcc
FLAG 560 1040 Vee
SYMBOL diode 48 32 R0
SYMATTR InstName D1
SYMATTR Value 1N914
SYMBOL res 48 128 R0
SYMATTR InstName R1
SYMATTR Value 2.77k
SYMBOL cap 48 288 R0
SYMATTR InstName C1
SYMATTR Value .505µ
SYMATTR SpiceLine IC=1
SYMBOL voltage -688 112 R0
WINDOW 123 0 0 Left 0
WINDOW 39 0 0 Left 0
SYMATTR InstName V1
SYMATTR Value 12
SYMBOL voltage -688 320 R0
WINDOW 123 0 0 Left 0
WINDOW 39 0 0 Left 0
SYMATTR InstName V2
SYMATTR Value -12
SYMBOL res 352 256 R0
SYMATTR InstName Rl
SYMATTR Value 1k
SYMBOL diode -64 272 R0
SYMATTR InstName D2
SYMATTR Value 1N914
SYMBOL pnp -112 480 M180
SYMATTR InstName Q1
SYMATTR Value 2N2907
SYMBOL cap 288 192 R0
SYMATTR InstName C3
SYMATTR Value 14.64µ
SYMBOL res -192 464 R0
SYMATTR InstName R2
SYMATTR Value 201k
SYMBOL diode 144 608 R0
SYMATTR InstName D3
SYMATTR Value 1N914
SYMBOL res 144 720 R0
SYMATTR InstName R4
SYMATTR Value 12k
SYMBOL res 144 864 R0
SYMATTR InstName R5
SYMATTR Value 6k
SYMBOL OpAmps\\UniversalOpamp2 208 272 M180
SYMATTR InstName U1
SYMBOL OpAmps\\UniversalOpamp2 304 560 M0
SYMATTR InstName U2
SYMBOL res 544 672 R0
SYMATTR InstName R3
SYMATTR Value 33.4k
SYMBOL res 544 912 R0
SYMATTR InstName R6
SYMATTR Value 90k
SYMBOL diode 528 832 R90
WINDOW 0 0 32 VBottom 2
WINDOW 3 32 32 VTop 2
SYMATTR InstName D4
SYMATTR Value 1N914
TEXT -768 1072 Left 2 !.tran 10m
